LTspice 26.0.0 for Windows
Circuit: C:\Users\mavev\OneDrive\Desktop\Programi\Faks\Domaci ltspice\Filip_Komarica_RA1432022\Zadatak1.net
Start Time: Sun Feb 15 20:30:13 2026
solver = Normal
Maximum thread count: 12
tnom = 27
temp = 27
method = trap
Direct Newton iteration succeeded in finding operating point.
Total elapsed time: 0.137 seconds.

Files loaded:
C:\Users\mavev\OneDrive\Desktop\Programi\Faks\Domaci ltspice\Filip_Komarica_RA1432022\Zadatak1.net
C:\Users\mavev\AppData\Local\LTspice\lib\sub\UniversalOpAmp2.lib

