LTspice 26.0.0 for Windows
Circuit: C:\Users\mavev\OneDrive\Desktop\Programi\Faks\Domaci ltspice\Filip_Komarica_RA1432022\Drugi\Zadatak2.net
Start Time: Sun Feb 15 21:10:03 2026
solver = Normal
Maximum thread count: 12
tnom = 27
temp = 27
method = trap
Direct Newton iteration failed to find operating point.
Starting Gmin stepping
Gmin stepping succeeded in finding the operating point.

Total elapsed time: 0.143 seconds.

Files loaded:
C:\Users\mavev\OneDrive\Desktop\Programi\Faks\Domaci ltspice\Filip_Komarica_RA1432022\Drugi\Zadatak2.net
C:\Users\mavev\AppData\Local\LTspice\lib\sub\UniversalOpAmp2.lib

